<?xml version="1.0" encoding="UTF-8"?>

<!-- generated on 24 يون, 2019 EET 01:29:21 ص by Eclipse SUMO netedit Version 1.2.0
<configuration xmlns:xsi="http://www.w3.org/2001/XMLSchema-instance" xsi:noNamespaceSchemaLocation="http://sumo.dlr.de/xsd/netconvertConfiguration.xsd">

    <input>
        <sumo-net-file value="../city.net.xml"/>
    </input>

    <output>
        <output-file value="../city.net.xml"/>
    </output>

    <processing>
        <geometry.max-grade.fix value="false"/>
        <offset.disable-normalization value="true"/>
        <lefthand value="false"/>
    </processing>

    <junctions>
        <no-turnarounds value="true"/>
        <junctions.corner-detail value="0"/>
        <junctions.limit-turn-speed value="-1"/>
        <rectangular-lane-cut value="false"/>
    </junctions>

    <pedestrian>
        <walkingareas value="false"/>
    </pedestrian>

    <visualisation>
        <registry-viewport value="true"/>
    </visualisation>

</configuration>
-->

<net version="1.1" xmlns:xsi="http://www.w3.org/2001/XMLSchema-instance" xsi:noNamespaceSchemaLocation="http://sumo.dlr.de/xsd/net_file.xsd">

    <location netOffset="0.00,0.00" convBoundary="-1000.00,-353.50,1000.00,853.50" origBoundary="-10000000000.00,-10000000000.00,10000000000.00,10000000000.00" projParameter="!"/>

    <edge id=":L_0" function="internal">
        <lane id=":L_0_0" index="0" speed="13.89" length="45.25" shape="-486.44,24.87 -495.31,17.49 -505.06,12.22 -515.68,9.05 -527.18,8.00"/>
    </edge>
    <edge id=":L_1" function="internal">
        <lane id=":L_1_0" index="0" speed="13.89" length="54.35" shape="-486.44,24.87 -524.87,-13.56"/>
    </edge>
    <edge id=":L_2" function="internal">
        <lane id=":L_2_0" index="0" speed="13.89" length="13.89" shape="-484.18,22.61 -493.54,14.82 -495.04,14.01"/>
    </edge>
    <edge id=":L_3" function="internal">
        <lane id=":L_3_0" index="0" speed="13.89" length="54.35" shape="-484.18,22.61 -522.61,-15.82"/>
    </edge>
    <edge id=":L_4" function="internal">
        <lane id=":L_4_0" index="0" speed="13.89" length="13.57" shape="-484.18,22.61 -489.64,13.41 -489.45,10.55"/>
    </edge>
    <edge id=":L_5" function="internal">
        <lane id=":L_5_0" index="0" speed="13.89" length="54.35" shape="-481.91,20.35 -520.35,-18.09"/>
    </edge>
    <edge id=":L_6" function="internal">
        <lane id=":L_6_0" index="0" speed="13.89" length="6.47" shape="-481.91,20.35 -485.22,14.78"/>
    </edge>
    <edge id=":L_28" function="internal">
        <lane id=":L_28_0" index="0" speed="13.89" length="33.87" shape="-495.04,14.01 -503.83,9.25 -515.04,5.91 -527.18,4.80"/>
    </edge>
    <edge id=":L_29" function="internal">
        <lane id=":L_29_0" index="0" speed="13.89" length="25.62" shape="-489.45,10.55 -489.05,4.53 -483.19,-2.16 -472.82,-4.80"/>
    </edge>
    <edge id=":L_30" function="internal">
        <lane id=":L_30_0" index="0" speed="13.89" length="24.90" shape="-485.22,14.78 -486.29,12.98 -485.82,5.87 -481.12,0.52 -472.82,-1.60"/>
    </edge>
    <edge id=":L_7" function="internal">
        <lane id=":L_7_0" index="0" speed="13.89" length="9.74" shape="-472.82,8.00 -475.92,8.35 -477.33,9.39 -477.07,11.13 -475.13,13.56"/>
    </edge>
    <edge id=":L_8" function="internal">
        <lane id=":L_8_0" index="0" speed="13.89" length="54.35" shape="-472.82,8.00 -527.18,8.00"/>
    </edge>
    <edge id=":L_9" function="internal">
        <lane id=":L_9_0" index="0" speed="13.89" length="7.71" shape="-472.82,4.80 -478.95,5.49 -480.19,6.40"/>
    </edge>
    <edge id=":L_10" function="internal">
        <lane id=":L_10_0" index="0" speed="13.89" length="54.35" shape="-472.82,4.80 -527.18,4.80"/>
    </edge>
    <edge id=":L_11" function="internal">
        <lane id=":L_11_0" index="0" speed="13.89" length="16.90" shape="-472.82,4.80 -482.93,2.30 -489.00,-0.00"/>
    </edge>
    <edge id=":L_12" function="internal">
        <lane id=":L_12_0" index="0" speed="13.89" length="54.35" shape="-472.82,1.60 -527.18,1.60"/>
    </edge>
    <edge id=":L_13" function="internal">
        <lane id=":L_13_0" index="0" speed="13.89" length="14.76" shape="-472.82,1.60 -486.23,0.37 -487.47,-0.00"/>
    </edge>
    <edge id=":L_31" function="internal">
        <lane id=":L_31_0" index="0" speed="13.89" length="11.60" shape="-480.19,6.40 -481.76,7.56 -481.24,11.00 -477.39,15.82"/>
    </edge>
    <edge id=":L_32" function="internal">
        <lane id=":L_32_0" index="0" speed="13.89" length="37.24" shape="-489.00,-0.00 -498.51,-3.60 -513.69,-10.45 -522.61,-15.82"/>
    </edge>
    <edge id=":L_33" function="internal">
        <lane id=":L_33_0" index="0" speed="13.89" length="38.03" shape="-487.47,-0.00 -498.62,-3.32 -510.00,-9.47 -520.35,-18.09"/>
    </edge>
    <edge id=":L_14" function="internal">
        <lane id=":L_14_0" index="0" speed="13.89" length="45.25" shape="-513.56,-24.87 -504.69,-17.49 -494.94,-12.22 -484.32,-9.05 -472.82,-8.00"/>
    </edge>
    <edge id=":L_15" function="internal">
        <lane id=":L_15_0" index="0" speed="13.89" length="54.35" shape="-513.56,-24.87 -475.13,13.56"/>
    </edge>
    <edge id=":L_16" function="internal">
        <lane id=":L_16_0" index="0" speed="13.89" length="13.89" shape="-515.82,-22.61 -506.46,-14.82 -504.96,-14.01"/>
    </edge>
    <edge id=":L_17" function="internal">
        <lane id=":L_17_0" index="0" speed="13.89" length="54.35" shape="-515.82,-22.61 -477.39,15.82"/>
    </edge>
    <edge id=":L_18" function="internal">
        <lane id=":L_18_0" index="0" speed="13.89" length="13.57" shape="-515.82,-22.61 -510.36,-13.41 -510.55,-10.55"/>
    </edge>
    <edge id=":L_19" function="internal">
        <lane id=":L_19_0" index="0" speed="13.89" length="54.35" shape="-518.09,-20.35 -479.65,18.09"/>
    </edge>
    <edge id=":L_20" function="internal">
        <lane id=":L_20_0" index="0" speed="13.89" length="6.47" shape="-518.09,-20.35 -514.78,-14.78"/>
    </edge>
    <edge id=":L_34" function="internal">
        <lane id=":L_34_0" index="0" speed="13.89" length="33.87" shape="-504.96,-14.01 -496.17,-9.25 -484.96,-5.91 -472.82,-4.80"/>
    </edge>
    <edge id=":L_35" function="internal">
        <lane id=":L_35_0" index="0" speed="13.89" length="25.62" shape="-510.55,-10.55 -510.95,-4.53 -516.81,2.16 -527.18,4.80"/>
    </edge>
    <edge id=":L_36" function="internal">
        <lane id=":L_36_0" index="0" speed="13.89" length="24.90" shape="-514.78,-14.78 -513.71,-12.98 -514.18,-5.87 -518.88,-0.52 -527.18,1.60"/>
    </edge>
    <edge id=":L_21" function="internal">
        <lane id=":L_21_0" index="0" speed="13.89" length="9.74" shape="-527.18,-8.00 -524.08,-8.35 -522.67,-9.39 -522.93,-11.13 -524.87,-13.56"/>
    </edge>
    <edge id=":L_22" function="internal">
        <lane id=":L_22_0" index="0" speed="13.89" length="54.35" shape="-527.18,-8.00 -472.82,-8.00"/>
    </edge>
    <edge id=":L_23" function="internal">
        <lane id=":L_23_0" index="0" speed="13.89" length="7.71" shape="-527.18,-4.80 -521.05,-5.49 -519.81,-6.40"/>
    </edge>
    <edge id=":L_24" function="internal">
        <lane id=":L_24_0" index="0" speed="13.89" length="54.35" shape="-527.18,-4.80 -472.82,-4.80"/>
    </edge>
    <edge id=":L_25" function="internal">
        <lane id=":L_25_0" index="0" speed="13.89" length="16.90" shape="-527.18,-4.80 -517.07,-2.30 -511.00,-0.00"/>
    </edge>
    <edge id=":L_26" function="internal">
        <lane id=":L_26_0" index="0" speed="13.89" length="54.35" shape="-527.18,-1.60 -472.82,-1.60"/>
    </edge>
    <edge id=":L_27" function="internal">
        <lane id=":L_27_0" index="0" speed="13.89" length="14.76" shape="-527.18,-1.60 -513.77,-0.37 -512.53,0.00"/>
    </edge>
    <edge id=":L_37" function="internal">
        <lane id=":L_37_0" index="0" speed="13.89" length="11.60" shape="-519.81,-6.40 -518.24,-7.56 -518.76,-11.00 -522.61,-15.82"/>
    </edge>
    <edge id=":L_38" function="internal">
        <lane id=":L_38_0" index="0" speed="13.89" length="37.24" shape="-511.00,-0.00 -501.49,3.60 -486.31,10.45 -477.39,15.82"/>
    </edge>
    <edge id=":L_39" function="internal">
        <lane id=":L_39_0" index="0" speed="13.89" length="38.03" shape="-512.53,0.00 -501.38,3.32 -490.00,9.47 -479.65,18.09"/>
    </edge>
    <edge id=":R_0" function="internal">
        <lane id=":R_0_0" index="0" speed="13.89" length="45.25" shape="527.18,8.00 515.68,9.05 505.06,12.22 495.31,17.49 486.44,24.87"/>
    </edge>
    <edge id=":R_1" function="internal">
        <lane id=":R_1_0" index="0" speed="13.89" length="54.35" shape="527.18,8.00 472.82,8.00"/>
    </edge>
    <edge id=":R_2" function="internal">
        <lane id=":R_2_0" index="0" speed="13.89" length="13.89" shape="527.18,4.80 515.04,5.91 513.41,6.40"/>
    </edge>
    <edge id=":R_3" function="internal">
        <lane id=":R_3_0" index="0" speed="13.89" length="54.35" shape="527.18,4.80 472.82,4.80"/>
    </edge>
    <edge id=":R_4" function="internal">
        <lane id=":R_4_0" index="0" speed="13.89" length="13.57" shape="527.18,4.80 516.81,2.16 514.92,0.00"/>
    </edge>
    <edge id=":R_5" function="internal">
        <lane id=":R_5_0" index="0" speed="13.89" length="54.35" shape="527.18,1.60 472.82,1.60"/>
    </edge>
    <edge id=":R_6" function="internal">
        <lane id=":R_6_0" index="0" speed="13.89" length="6.47" shape="527.18,1.60 520.90,-0.00"/>
    </edge>
    <edge id=":R_28" function="internal">
        <lane id=":R_28_0" index="0" speed="13.89" length="33.87" shape="513.41,6.40 503.83,9.25 493.54,14.82 484.18,22.61"/>
    </edge>
    <edge id=":R_29" function="internal">
        <lane id=":R_29_0" index="0" speed="13.89" length="25.62" shape="514.92,0.00 510.95,-4.53 510.36,-13.41 515.82,-22.61"/>
    </edge>
    <edge id=":R_30" function="internal">
        <lane id=":R_30_0" index="0" speed="13.89" length="24.90" shape="520.90,-0.00 518.88,-0.52 514.18,-5.87 513.71,-12.98 518.09,-20.35"/>
    </edge>
    <edge id=":R_7" function="internal">
        <lane id=":R_7_0" index="0" speed="13.89" length="9.74" shape="524.87,-13.56 522.93,-11.13 522.67,-9.39 524.08,-8.35 527.18,-8.00"/>
    </edge>
    <edge id=":R_8" function="internal">
        <lane id=":R_8_0" index="0" speed="13.89" length="54.35" shape="524.87,-13.56 486.44,24.87"/>
    </edge>
    <edge id=":R_9" function="internal">
        <lane id=":R_9_0" index="0" speed="13.89" length="7.71" shape="522.61,-15.82 518.76,-11.00 518.53,-9.48"/>
    </edge>
    <edge id=":R_10" function="internal">
        <lane id=":R_10_0" index="0" speed="13.89" length="54.35" shape="522.61,-15.82 484.18,22.61"/>
    </edge>
    <edge id=":R_11" function="internal">
        <lane id=":R_11_0" index="0" speed="13.89" length="16.90" shape="522.61,-15.82 513.69,-10.45 507.78,-7.78"/>
    </edge>
    <edge id=":R_12" function="internal">
        <lane id=":R_12_0" index="0" speed="13.89" length="54.35" shape="520.35,-18.09 481.91,20.35"/>
    </edge>
    <edge id=":R_13" function="internal">
        <lane id=":R_13_0" index="0" speed="13.89" length="14.76" shape="520.35,-18.09 510.00,-9.47 508.86,-8.86"/>
    </edge>
    <edge id=":R_31" function="internal">
        <lane id=":R_31_0" index="0" speed="13.89" length="11.60" shape="518.53,-9.48 518.24,-7.56 521.05,-5.49 527.18,-4.80"/>
    </edge>
    <edge id=":R_32" function="internal">
        <lane id=":R_32_0" index="0" speed="13.89" length="37.24" shape="507.78,-7.78 498.51,-3.60 482.93,2.30 472.82,4.80"/>
    </edge>
    <edge id=":R_33" function="internal">
        <lane id=":R_33_0" index="0" speed="13.89" length="38.03" shape="508.86,-8.86 498.62,-3.32 486.23,0.37 472.82,1.60"/>
    </edge>
    <edge id=":R_14" function="internal">
        <lane id=":R_14_0" index="0" speed="13.89" length="45.25" shape="472.82,-8.00 484.32,-9.05 494.94,-12.22 504.69,-17.49 513.56,-24.87"/>
    </edge>
    <edge id=":R_15" function="internal">
        <lane id=":R_15_0" index="0" speed="13.89" length="54.35" shape="472.82,-8.00 527.18,-8.00"/>
    </edge>
    <edge id=":R_16" function="internal">
        <lane id=":R_16_0" index="0" speed="13.89" length="13.89" shape="472.82,-4.80 484.96,-5.91 486.59,-6.40"/>
    </edge>
    <edge id=":R_17" function="internal">
        <lane id=":R_17_0" index="0" speed="13.89" length="54.35" shape="472.82,-4.80 527.18,-4.80"/>
    </edge>
    <edge id=":R_18" function="internal">
        <lane id=":R_18_0" index="0" speed="13.89" length="13.57" shape="472.82,-4.80 483.19,-2.16 485.08,0.00"/>
    </edge>
    <edge id=":R_19" function="internal">
        <lane id=":R_19_0" index="0" speed="13.89" length="54.35" shape="472.82,-1.60 527.18,-1.60"/>
    </edge>
    <edge id=":R_20" function="internal">
        <lane id=":R_20_0" index="0" speed="13.89" length="6.47" shape="472.82,-1.60 479.10,0.00"/>
    </edge>
    <edge id=":R_34" function="internal">
        <lane id=":R_34_0" index="0" speed="13.89" length="33.87" shape="486.59,-6.40 496.17,-9.25 506.46,-14.82 515.82,-22.61"/>
    </edge>
    <edge id=":R_35" function="internal">
        <lane id=":R_35_0" index="0" speed="13.89" length="25.62" shape="485.08,0.00 489.05,4.53 489.64,13.41 484.18,22.61"/>
    </edge>
    <edge id=":R_36" function="internal">
        <lane id=":R_36_0" index="0" speed="13.89" length="24.90" shape="479.10,0.00 481.12,0.52 485.82,5.87 486.29,12.98 481.91,20.35"/>
    </edge>
    <edge id=":R_21" function="internal">
        <lane id=":R_21_0" index="0" speed="13.89" length="9.74" shape="475.13,13.56 477.07,11.13 477.33,9.39 475.92,8.35 472.82,8.00"/>
    </edge>
    <edge id=":R_22" function="internal">
        <lane id=":R_22_0" index="0" speed="13.89" length="54.35" shape="475.13,13.56 513.56,-24.87"/>
    </edge>
    <edge id=":R_23" function="internal">
        <lane id=":R_23_0" index="0" speed="13.89" length="7.71" shape="477.39,15.82 481.24,11.00 481.47,9.48"/>
    </edge>
    <edge id=":R_24" function="internal">
        <lane id=":R_24_0" index="0" speed="13.89" length="54.35" shape="477.39,15.82 515.82,-22.61"/>
    </edge>
    <edge id=":R_25" function="internal">
        <lane id=":R_25_0" index="0" speed="13.89" length="16.90" shape="477.39,15.82 486.31,10.45 492.22,7.78"/>
    </edge>
    <edge id=":R_26" function="internal">
        <lane id=":R_26_0" index="0" speed="13.89" length="54.35" shape="479.65,18.09 518.09,-20.35"/>
    </edge>
    <edge id=":R_27" function="internal">
        <lane id=":R_27_0" index="0" speed="13.89" length="14.76" shape="479.65,18.09 490.00,9.47 491.14,8.86"/>
    </edge>
    <edge id=":R_37" function="internal">
        <lane id=":R_37_0" index="0" speed="13.89" length="11.60" shape="481.47,9.48 481.76,7.56 478.95,5.49 472.82,4.80"/>
    </edge>
    <edge id=":R_38" function="internal">
        <lane id=":R_38_0" index="0" speed="13.89" length="37.24" shape="492.22,7.78 501.49,3.60 517.07,-2.30 527.18,-4.80"/>
    </edge>
    <edge id=":R_39" function="internal">
        <lane id=":R_39_0" index="0" speed="13.89" length="38.03" shape="491.14,8.86 501.38,3.32 513.77,-0.37 527.18,-1.60"/>
    </edge>
    <edge id=":U_0" function="internal">
        <lane id=":U_0_0" index="0" speed="13.89" length="9.03" shape="3.96,515.27 1.98,513.79 0.00,513.29 -1.98,513.79 -3.96,515.27"/>
    </edge>
    <edge id=":U_1" function="internal">
        <lane id=":U_1_0" index="0" speed="13.89" length="27.20" shape="3.96,515.27 -15.27,496.04"/>
    </edge>
    <edge id=":U_2" function="internal">
        <lane id=":U_2_0" index="0" speed="13.89" length="5.93" shape="6.22,513.01 3.11,510.68 1.13,510.18"/>
    </edge>
    <edge id=":U_3" function="internal">
        <lane id=":U_3_0" index="0" speed="13.89" length="27.20" shape="6.22,513.01 -13.01,493.78"/>
    </edge>
    <edge id=":U_4" function="internal">
        <lane id=":U_4_0" index="0" speed="13.89" length="12.10" shape="6.22,513.01 2.77,507.22 1.93,501.93"/>
    </edge>
    <edge id=":U_5" function="internal">
        <lane id=":U_5_0" index="0" speed="13.89" length="27.20" shape="8.49,510.75 -10.75,491.51"/>
    </edge>
    <edge id=":U_6" function="internal">
        <lane id=":U_6_0" index="0" speed="13.89" length="7.98" shape="8.49,510.75 4.45,505.37 4.15,504.15"/>
    </edge>
    <edge id=":U_28" function="internal">
        <lane id=":U_28_0" index="0" speed="13.89" length="8.26" shape="1.13,510.18 0.00,509.90 -3.11,510.68 -6.22,513.01"/>
    </edge>
    <edge id=":U_29" function="internal">
        <lane id=":U_29_0" index="0" speed="13.89" length="16.01" shape="1.93,501.93 1.62,500.00 2.77,492.78 6.22,486.99"/>
    </edge>
    <edge id=":U_30" function="internal">
        <lane id=":U_30_0" index="0" speed="13.89" length="16.53" shape="4.15,504.15 3.11,500.00 4.45,494.63 8.49,489.25"/>
    </edge>
    <edge id=":U_7" function="internal">
        <lane id=":U_7_0" index="0" speed="13.89" length="9.03" shape="15.27,496.04 13.79,498.02 13.29,500.00 13.79,501.98 15.27,503.96"/>
    </edge>
    <edge id=":U_8" function="internal">
        <lane id=":U_8_0" index="0" speed="13.89" length="27.20" shape="15.27,496.04 -3.96,515.27"/>
    </edge>
    <edge id=":U_9" function="internal">
        <lane id=":U_9_0" index="0" speed="13.89" length="5.93" shape="13.01,493.78 10.68,496.89 10.18,498.87"/>
    </edge>
    <edge id=":U_10" function="internal">
        <lane id=":U_10_0" index="0" speed="13.89" length="27.20" shape="13.01,493.78 -6.22,513.01"/>
    </edge>
    <edge id=":U_11" function="internal">
        <lane id=":U_11_0" index="0" speed="13.89" length="12.10" shape="13.01,493.78 7.22,497.23 1.93,498.07"/>
    </edge>
    <edge id=":U_12" function="internal">
        <lane id=":U_12_0" index="0" speed="13.89" length="27.20" shape="10.75,491.51 -8.49,510.75"/>
    </edge>
    <edge id=":U_13" function="internal">
        <lane id=":U_13_0" index="0" speed="13.89" length="7.98" shape="10.75,491.51 5.37,495.55 4.15,495.85"/>
    </edge>
    <edge id=":U_31" function="internal">
        <lane id=":U_31_0" index="0" speed="13.89" length="8.26" shape="10.18,498.87 9.90,500.00 10.68,503.11 13.01,506.22"/>
    </edge>
    <edge id=":U_32" function="internal">
        <lane id=":U_32_0" index="0" speed="13.89" length="16.01" shape="1.93,498.07 0.00,498.38 -7.22,497.23 -13.01,493.78"/>
    </edge>
    <edge id=":U_33" function="internal">
        <lane id=":U_33_0" index="0" speed="13.89" length="16.53" shape="4.15,495.85 -0.00,496.89 -5.37,495.55 -10.75,491.51"/>
    </edge>
    <edge id=":U_14" function="internal">
        <lane id=":U_14_0" index="0" speed="13.89" length="9.03" shape="-3.96,484.73 -1.98,486.21 -0.00,486.71 1.98,486.21 3.96,484.73"/>
    </edge>
    <edge id=":U_15" function="internal">
        <lane id=":U_15_0" index="0" speed="13.89" length="27.20" shape="-3.96,484.73 15.27,503.96"/>
    </edge>
    <edge id=":U_16" function="internal">
        <lane id=":U_16_0" index="0" speed="13.89" length="5.93" shape="-6.22,486.99 -3.11,489.32 -1.13,489.82"/>
    </edge>
    <edge id=":U_17" function="internal">
        <lane id=":U_17_0" index="0" speed="13.89" length="27.20" shape="-6.22,486.99 13.01,506.22"/>
    </edge>
    <edge id=":U_18" function="internal">
        <lane id=":U_18_0" index="0" speed="13.89" length="12.10" shape="-6.22,486.99 -2.77,492.78 -1.93,498.07"/>
    </edge>
    <edge id=":U_19" function="internal">
        <lane id=":U_19_0" index="0" speed="13.89" length="27.20" shape="-8.49,489.25 10.75,508.49"/>
    </edge>
    <edge id=":U_20" function="internal">
        <lane id=":U_20_0" index="0" speed="13.89" length="7.98" shape="-8.49,489.25 -4.45,494.63 -4.15,495.85"/>
    </edge>
    <edge id=":U_34" function="internal">
        <lane id=":U_34_0" index="0" speed="13.89" length="8.26" shape="-1.13,489.82 0.00,490.10 3.11,489.32 6.22,486.99"/>
    </edge>
    <edge id=":U_35" function="internal">
        <lane id=":U_35_0" index="0" speed="13.89" length="16.01" shape="-1.93,498.07 -1.62,500.00 -2.77,507.22 -6.22,513.01"/>
    </edge>
    <edge id=":U_36" function="internal">
        <lane id=":U_36_0" index="0" speed="13.89" length="16.53" shape="-4.15,495.85 -3.11,500.00 -4.45,505.37 -8.49,510.75"/>
    </edge>
    <edge id=":U_21" function="internal">
        <lane id=":U_21_0" index="0" speed="13.89" length="9.03" shape="-15.27,503.96 -13.79,501.98 -13.29,500.00 -13.79,498.02 -15.27,496.04"/>
    </edge>
    <edge id=":U_22" function="internal">
        <lane id=":U_22_0" index="0" speed="13.89" length="27.20" shape="-15.27,503.96 3.96,484.73"/>
    </edge>
    <edge id=":U_23" function="internal">
        <lane id=":U_23_0" index="0" speed="13.89" length="5.93" shape="-13.01,506.22 -10.68,503.11 -10.18,501.13"/>
    </edge>
    <edge id=":U_24" function="internal">
        <lane id=":U_24_0" index="0" speed="13.89" length="27.20" shape="-13.01,506.22 6.22,486.99"/>
    </edge>
    <edge id=":U_25" function="internal">
        <lane id=":U_25_0" index="0" speed="13.89" length="12.10" shape="-13.01,506.22 -7.22,502.77 -1.93,501.93"/>
    </edge>
    <edge id=":U_26" function="internal">
        <lane id=":U_26_0" index="0" speed="13.89" length="27.20" shape="-10.75,508.49 8.49,489.25"/>
    </edge>
    <edge id=":U_27" function="internal">
        <lane id=":U_27_0" index="0" speed="13.89" length="7.98" shape="-10.75,508.49 -5.37,504.45 -4.15,504.15"/>
    </edge>
    <edge id=":U_37" function="internal">
        <lane id=":U_37_0" index="0" speed="13.89" length="8.26" shape="-10.18,501.13 -9.90,500.00 -10.68,496.89 -13.01,493.78"/>
    </edge>
    <edge id=":U_38" function="internal">
        <lane id=":U_38_0" index="0" speed="13.89" length="16.01" shape="-1.93,501.93 0.00,501.62 7.22,502.77 13.01,506.22"/>
    </edge>
    <edge id=":U_39" function="internal">
        <lane id=":U_39_0" index="0" speed="13.89" length="16.53" shape="-4.15,504.15 0.00,503.11 5.37,504.45 10.75,508.49"/>
    </edge>

    <edge id="EasttoR" from="East" to="R" priority="1">
        <lane id="EasttoR_0" index="0" speed="13.89" length="472.82" shape="1000.00,8.00 527.18,8.00"/>
        <lane id="EasttoR_1" index="1" speed="13.89" length="472.82" shape="1000.00,4.80 527.18,4.80"/>
        <lane id="EasttoR_2" index="2" speed="13.89" length="472.82" shape="1000.00,1.60 527.18,1.60"/>
    </edge>
    <edge id="LtoR" from="L" to="R" priority="1" length="190.00">
        <lane id="LtoR_0" index="0" speed="13.89" length="190.00" shape="-472.82,-8.00 472.82,-8.00"/>
        <lane id="LtoR_1" index="1" speed="13.89" length="190.00" shape="-472.82,-4.80 472.82,-4.80"/>
        <lane id="LtoR_2" index="2" speed="13.89" length="190.00" shape="-472.82,-1.60 472.82,-1.60"/>
    </edge>
    <edge id="LtoSouthWest" from="L" to="SouthWest" priority="1">
        <lane id="LtoSouthWest_0" index="0" speed="13.89" length="472.75" shape="-524.87,-13.56 -859.16,-347.84"/>
        <lane id="LtoSouthWest_1" index="1" speed="13.89" length="472.75" shape="-522.61,-15.82 -856.89,-350.11"/>
        <lane id="LtoSouthWest_2" index="2" speed="13.89" length="472.75" shape="-520.35,-18.09 -854.63,-352.37"/>
    </edge>
    <edge id="LtoU" from="L" to="U" priority="1" length="200.00">
        <lane id="LtoU_0" index="0" speed="13.89" length="200.00" shape="-475.13,13.56 -3.96,484.73"/>
        <lane id="LtoU_1" index="1" speed="13.89" length="200.00" shape="-477.39,15.82 -6.22,486.99"/>
        <lane id="LtoU_2" index="2" speed="13.89" length="200.00" shape="-479.65,18.09 -8.49,489.25"/>
    </edge>
    <edge id="LtoWest" from="L" to="West" priority="1">
        <lane id="LtoWest_0" index="0" speed="13.89" length="472.82" shape="-527.18,8.00 -1000.00,8.00"/>
        <lane id="LtoWest_1" index="1" speed="13.89" length="472.82" shape="-527.18,4.80 -1000.00,4.80"/>
        <lane id="LtoWest_2" index="2" speed="13.89" length="472.82" shape="-527.18,1.60 -1000.00,1.60"/>
    </edge>
    <edge id="NorthEasttoU" from="NorthEast" to="U" priority="1">
        <lane id="NorthEasttoU_0" index="0" speed="13.89" length="486.32" shape="347.84,859.16 3.96,515.27"/>
        <lane id="NorthEasttoU_1" index="1" speed="13.89" length="486.32" shape="350.11,856.89 6.22,513.01"/>
        <lane id="NorthEasttoU_2" index="2" speed="13.89" length="486.32" shape="352.37,854.63 8.49,510.75"/>
    </edge>
    <edge id="NorthWesttoU" from="NorthWest" to="U" priority="1">
        <lane id="NorthWesttoU_0" index="0" speed="13.89" length="486.32" shape="-359.16,847.84 -15.27,503.96"/>
        <lane id="NorthWesttoU_1" index="1" speed="13.89" length="486.32" shape="-356.89,850.11 -13.01,506.22"/>
        <lane id="NorthWesttoU_2" index="2" speed="13.89" length="486.32" shape="-354.63,852.37 -10.75,508.49"/>
    </edge>
    <edge id="RtoEast" from="R" to="East" priority="1">
        <lane id="RtoEast_0" index="0" speed="13.89" length="472.82" shape="527.18,-8.00 1000.00,-8.00"/>
        <lane id="RtoEast_1" index="1" speed="13.89" length="472.82" shape="527.18,-4.80 1000.00,-4.80"/>
        <lane id="RtoEast_2" index="2" speed="13.89" length="472.82" shape="527.18,-1.60 1000.00,-1.60"/>
    </edge>
    <edge id="RtoL" from="R" to="L" priority="1" length="190.00">
        <lane id="RtoL_0" index="0" speed="13.89" length="190.00" shape="472.82,8.00 -472.82,8.00"/>
        <lane id="RtoL_1" index="1" speed="13.89" length="190.00" shape="472.82,4.80 -472.82,4.80"/>
        <lane id="RtoL_2" index="2" speed="13.89" length="190.00" shape="472.82,1.60 -472.82,1.60"/>
    </edge>
    <edge id="RtoSouthEast" from="R" to="SouthEast" priority="1">
        <lane id="RtoSouthEast_0" index="0" speed="13.89" length="472.75" shape="513.56,-24.87 847.84,-359.16"/>
        <lane id="RtoSouthEast_1" index="1" speed="13.89" length="472.75" shape="515.82,-22.61 850.11,-356.89"/>
        <lane id="RtoSouthEast_2" index="2" speed="13.89" length="472.75" shape="518.09,-20.35 852.37,-354.63"/>
    </edge>
    <edge id="RtoU" from="R" to="U" priority="1" length="90.00">
        <lane id="RtoU_0" index="0" speed="13.89" length="90.00" shape="486.44,24.87 15.27,496.04"/>
        <lane id="RtoU_1" index="1" speed="13.89" length="90.00" shape="484.18,22.61 13.01,493.78"/>
        <lane id="RtoU_2" index="2" speed="13.89" length="90.00" shape="481.91,20.35 10.75,491.51"/>
    </edge>
    <edge id="SouthEasttoR" from="SouthEast" to="R" priority="1">
        <lane id="SouthEasttoR_0" index="0" speed="13.89" length="472.75" shape="859.16,-347.84 524.87,-13.56"/>
        <lane id="SouthEasttoR_1" index="1" speed="13.89" length="472.75" shape="856.89,-350.11 522.61,-15.82"/>
        <lane id="SouthEasttoR_2" index="2" speed="13.89" length="472.75" shape="854.63,-352.37 520.35,-18.09"/>
    </edge>
    <edge id="SouthWesttoL" from="SouthWest" to="L" priority="1">
        <lane id="SouthWesttoL_0" index="0" speed="13.89" length="472.75" shape="-847.84,-359.16 -513.56,-24.87"/>
        <lane id="SouthWesttoL_1" index="1" speed="13.89" length="472.75" shape="-850.11,-356.89 -515.82,-22.61"/>
        <lane id="SouthWesttoL_2" index="2" speed="13.89" length="472.75" shape="-852.37,-354.63 -518.09,-20.35"/>
    </edge>
    <edge id="UtoL" from="U" to="L" priority="1" length="200.00">
        <lane id="UtoL_0" index="0" speed="13.89" length="200.00" shape="-15.27,496.04 -486.44,24.87"/>
        <lane id="UtoL_1" index="1" speed="13.89" length="200.00" shape="-13.01,493.78 -484.18,22.61"/>
        <lane id="UtoL_2" index="2" speed="13.89" length="200.00" shape="-10.75,491.51 -481.91,20.35"/>
    </edge>
    <edge id="UtoNorthEast" from="U" to="NorthEast" priority="1">
        <lane id="UtoNorthEast_0" index="0" speed="13.89" length="486.32" shape="15.27,503.96 359.16,847.84"/>
        <lane id="UtoNorthEast_1" index="1" speed="13.89" length="486.32" shape="13.01,506.22 356.89,850.11"/>
        <lane id="UtoNorthEast_2" index="2" speed="13.89" length="486.32" shape="10.75,508.49 354.63,852.37"/>
    </edge>
    <edge id="UtoNorthWest" from="U" to="NorthWest" priority="1">
        <lane id="UtoNorthWest_0" index="0" speed="13.89" length="486.32" shape="-3.96,515.27 -347.84,859.16"/>
        <lane id="UtoNorthWest_1" index="1" speed="13.89" length="486.32" shape="-6.22,513.01 -350.11,856.89"/>
        <lane id="UtoNorthWest_2" index="2" speed="13.89" length="486.32" shape="-8.49,510.75 -352.37,854.63"/>
    </edge>
    <edge id="UtoR" from="U" to="R" priority="1" length="90.00">
        <lane id="UtoR_0" index="0" speed="13.89" length="90.00" shape="3.96,484.73 475.13,13.56"/>
        <lane id="UtoR_1" index="1" speed="13.89" length="90.00" shape="6.22,486.99 477.39,15.82"/>
        <lane id="UtoR_2" index="2" speed="13.89" length="90.00" shape="8.49,489.25 479.65,18.09"/>
    </edge>
    <edge id="WesttoL" from="West" to="L" priority="1">
        <lane id="WesttoL_0" index="0" speed="13.89" length="472.82" shape="-1000.00,-8.00 -527.18,-8.00"/>
        <lane id="WesttoL_1" index="1" speed="13.89" length="472.82" shape="-1000.00,-4.80 -527.18,-4.80"/>
        <lane id="WesttoL_2" index="2" speed="13.89" length="472.82" shape="-1000.00,-1.60 -527.18,-1.60"/>
    </edge>

    <tlLogic id="L" type="static" programID="0" offset="0">
        <phase duration="33" state="GGgGgGgrrrrrrrGGgGgGgrrrrrrr"/>
        <phase duration="3"  state="yyyyyygrrrrrrryyyyyygrrrrrrr"/>
        <phase duration="6"  state="rrrrrrGrrrrrrrrrrrrrGrrrrrrr"/>
        <phase duration="3"  state="rrrrrryrrrrrrrrrrrrryrrrrrrr"/>
        <phase duration="33" state="rrrrrrrGGgGgGgrrrrrrrGGgGgGg"/>
        <phase duration="3"  state="rrrrrrryyyyyygrrrrrrryyyyyyg"/>
        <phase duration="6"  state="rrrrrrrrrrrrrGrrrrrrrrrrrrrG"/>
        <phase duration="3"  state="rrrrrrrrrrrrryrrrrrrrrrrrrry"/>
    </tlLogic>
    <tlLogic id="R" type="static" programID="0" offset="0">
        <phase duration="33" state="GGgGgGgrrrrrrrGGgGgGgrrrrrrr"/>
        <phase duration="3"  state="yyyyyygrrrrrrryyyyyygrrrrrrr"/>
        <phase duration="6"  state="rrrrrrGrrrrrrrrrrrrrGrrrrrrr"/>